Version 4
SHEET 1 996 704
WIRE 912 224 496 224
WIRE 800 272 768 272
WIRE 768 288 768 272
WIRE 496 304 496 224
WIRE 528 304 496 304
WIRE 800 304 800 272
WIRE 672 320 608 320
WIRE 800 320 672 320
WIRE 528 336 496 336
WIRE 912 336 912 224
WIRE 912 336 880 336
WIRE 496 352 496 336
WIRE 528 352 496 352
WIRE 800 352 768 352
WIRE 496 368 496 352
WIRE 672 384 672 320
WIRE 768 400 768 352
WIRE 912 400 912 336
WIRE 912 400 768 400
WIRE 768 432 768 400
WIRE 672 464 672 448
WIRE 768 528 768 496
WIRE 768 560 768 528
WIRE 768 688 768 640
FLAG 912 336 Vo
FLAG 768 528 Vi
FLAG 768 688 0
FLAG 672 464 0
FLAG 768 288 0
FLAG 496 368 0
SYMBOL Misc/signal 768 544 R0
SYMATTR InstName V1
SYMATTR Value2 AC 1
SYMBOL SpecialFunctions/ota 560 256 R0
WINDOW 3 0 10 Left 2
WINDOW 39 -35 146 Left 2
WINDOW 40 -37 170 Left 2
SYMATTR SpiceLine G=10m
SYMATTR SpiceLine2 Vlow=-1
SYMATTR InstName A1
SYMBOL SpecialFunctions/ota 832 400 M180
WINDOW 3 0 10 Left 2
WINDOW 39 -11 140 Left 2
WINDOW 40 -9 114 Left 2
SYMATTR SpiceLine G=10m
SYMATTR SpiceLine2 Vlow=-1
SYMATTR InstName A2
SYMBOL cap 656 384 R0
SYMATTR InstName C1
SYMATTR Value 10m
SYMBOL cap 752 432 R0
SYMATTR InstName C2
SYMATTR Value 10m
TEXT 16 568 Left 2 !.lib opamp.sub
TEXT 16 600 Left 2 !.ac dec 1K 0.01 100
TEXT -104 176 Left 2 ;Guia de trabajos practicos numero 2, ejercicio 8
