Version 4
SHEET 1 880 680
WIRE 288 208 256 208
WIRE 256 224 256 208
WIRE 288 256 288 208
WIRE 192 272 64 272
WIRE 288 272 192 272
WIRE 464 288 368 288
WIRE 288 304 256 304
WIRE 256 320 256 304
WIRE 64 336 64 272
WIRE 464 352 464 288
WIRE 528 352 464 352
WIRE 528 384 528 352
WIRE 464 416 464 352
WIRE 464 416 368 416
WIRE 192 432 192 272
WIRE 288 432 192 432
WIRE 384 448 368 448
WIRE 64 464 64 416
WIRE 384 464 384 448
WIRE 384 464 368 464
WIRE 384 496 384 464
WIRE 528 496 528 448
FLAG 64 272 Vi
FLAG 64 464 0
FLAG 384 496 0
FLAG 528 496 0
FLAG 256 224 0
FLAG 256 320 0
SYMBOL Misc/signal 64 320 R0
WINDOW 0 -166 67 Left 2
WINDOW 3 -180 112 Left 2
SYMATTR InstName V1
SYMATTR Value2 AC 1
SYMBOL SpecialFunctions/ota 320 352 M180
WINDOW 3 0 10 Left 2
WINDOW 39 -11 140 Left 2
WINDOW 40 -9 114 Left 2
SYMATTR SpiceLine G=200u
SYMATTR SpiceLine2 Vlow=-1
SYMATTR InstName A1
SYMBOL SpecialFunctions/ota 336 368 M0
WINDOW 39 -3 131 Left 2
WINDOW 40 -4 108 Left 2
SYMATTR InstName A2
SYMATTR SpiceLine G=200u
SYMATTR SpiceLine2 Vlow=-1
SYMBOL cap 512 384 R0
SYMATTR InstName C1
SYMATTR Value 1µ
TEXT 16 568 Left 2 !.lib opamp.sub
TEXT 16 600 Left 2 !.ac dec 1 1 100K
TEXT -104 176 Left 2 ;Guia de trabajos practicos numero 1, ejercicio 4 apartado b
