Version 4
SHEET 1 880 680
WIRE 160 304 64 304
WIRE 272 304 240 304
WIRE 432 304 272 304
WIRE 64 336 64 304
WIRE 272 368 272 304
WIRE 304 368 272 368
WIRE 432 384 432 304
WIRE 432 384 384 384
WIRE 304 400 272 400
WIRE 272 416 272 400
WIRE 304 416 272 416
WIRE 64 464 64 416
WIRE 272 464 272 416
FLAG 432 304 Vo
FLAG 64 304 Vi
FLAG 64 464 0
FLAG 272 464 0
SYMBOL res 256 288 R90
WINDOW 0 0 56 VBottom 2
WINDOW 3 32 56 VTop 2
SYMATTR InstName R1
SYMATTR Value 5k
SYMBOL Misc/signal 64 320 R0
SYMATTR InstName V1
SYMATTR Value2 AC 1
SYMBOL SpecialFunctions/ota 336 320 R0
WINDOW 3 0 10 Left 2
WINDOW 39 -11 140 Left 2
WINDOW 40 -9 114 Left 2
SYMATTR InstName A1
SYMATTR SpiceLine G=200u
SYMATTR SpiceLine2 Vlow=-1
TEXT 16 568 Left 2 !.lib opamp.sub
TEXT 16 600 Left 2 !.ac dec 1K 1 100K
TEXT -104 176 Left 2 ;Guia de trabajos practicos numero 1, ejercicio 4 apartado b
