Version 4
SHEET 1 1224 680
WIRE 544 192 400 192
WIRE 400 256 400 192
WIRE 448 256 400 256
WIRE 544 272 544 192
WIRE 544 272 512 272
WIRE 592 272 544 272
WIRE 704 272 672 272
WIRE 816 272 768 272
WIRE 112 288 -48 288
WIRE 240 288 192 288
WIRE 256 288 240 288
WIRE 352 288 304 288
WIRE 448 288 352 288
WIRE -48 320 -48 288
WIRE 352 320 352 288
WIRE 816 320 816 272
WIRE 352 432 352 400
WIRE 816 432 816 400
WIRE -48 448 -48 400
FLAG 352 432 0
FLAG 816 432 0
FLAG -48 448 0
FLAG 816 272 vo
SYMBOL Opamps/opamp 480 208 R0
SYMATTR InstName U1
SYMBOL res 208 272 R90
WINDOW 0 0 56 VBottom 2
WINDOW 3 32 56 VTop 2
SYMATTR InstName R1
SYMATTR Value 1000
SYMBOL res 688 256 R90
WINDOW 0 0 56 VBottom 2
WINDOW 3 32 56 VTop 2
SYMATTR InstName R2
SYMATTR Value 1000
SYMBOL ind 368 416 R180
WINDOW 0 36 80 Left 2
WINDOW 3 36 40 Left 2
SYMATTR InstName L1
SYMATTR Value 29.27m
SYMBOL ind 832 416 R180
WINDOW 0 36 80 Left 2
WINDOW 3 36 40 Left 2
SYMATTR InstName L2
SYMATTR Value 70.4m
SYMBOL cap 768 256 R90
WINDOW 0 0 32 VBottom 2
WINDOW 3 32 32 VTop 2
SYMATTR InstName C1
SYMATTR Value 41.20n
SYMBOL cap 304 272 R90
WINDOW 0 0 32 VBottom 2
WINDOW 3 32 32 VTop 2
SYMATTR InstName C2
SYMATTR Value 99.10n
SYMBOL Misc/signal -48 304 R0
SYMATTR InstName V1
SYMATTR Value2 AC 1
TEXT -648 304 Left 2 !.lib opamp.sub\n.ac dec 10000 500 10k
TEXT -616 16 Left 2 ;Simulacion TP2 ejercicio 4 Filtro pasa altos desnormalizado.\nSe calculo un butter normalizado en OmegaButter y se transformo a HP con el nucleo s = (1/s), luego se desnormalizaron los componentes por OmegaButer y OmegaZ = 1k
