Version 4
SHEET 1 1780 680
WIRE 128 240 -16 240
WIRE 224 256 192 256
WIRE 272 256 224 256
WIRE 416 256 352 256
WIRE 480 256 416 256
WIRE 544 256 480 256
WIRE 624 256 544 256
WIRE 128 272 96 272
WIRE 736 272 688 272
WIRE 768 272 736 272
WIRE 912 272 848 272
WIRE 976 272 912 272
WIRE 1104 272 976 272
WIRE 416 288 416 256
WIRE 480 288 480 256
WIRE 624 288 592 288
WIRE 1200 288 1168 288
WIRE 1232 288 1200 288
WIRE 1376 288 1312 288
WIRE 1440 288 1376 288
WIRE 912 304 912 272
WIRE 976 304 976 272
WIRE 1104 304 1072 304
WIRE -16 320 -16 240
WIRE 96 320 96 272
WIRE 128 320 96 320
WIRE 224 320 224 256
WIRE 224 320 208 320
WIRE 1376 320 1376 288
WIRE 1440 320 1440 288
WIRE 592 336 592 288
WIRE 624 336 592 336
WIRE 736 336 736 272
WIRE 736 336 704 336
WIRE 96 352 96 320
WIRE 1072 352 1072 304
WIRE 1104 352 1072 352
WIRE 1200 352 1200 288
WIRE 1200 352 1184 352
WIRE 592 368 592 336
WIRE 1072 384 1072 352
WIRE 416 416 416 352
WIRE 480 416 480 368
WIRE 1376 416 1376 384
WIRE 1440 416 1440 400
WIRE 912 432 912 368
WIRE 976 432 976 384
WIRE -16 464 -16 400
WIRE 96 464 96 432
WIRE 592 480 592 448
WIRE 1072 480 1072 464
FLAG 416 416 0
FLAG 480 416 0
FLAG -16 464 0
FLAG 544 256 V1_bp
FLAG 96 464 0
FLAG 912 432 0
FLAG 976 432 0
FLAG 592 480 0
FLAG 976 272 V2_bp
FLAG 1072 480 0
FLAG 1376 416 0
FLAG 1440 416 0
FLAG 1440 288 V3_bp
FLAG -16 240 V_in
SYMBOL res 368 240 R90
WINDOW 0 0 56 VBottom 2
WINDOW 3 32 56 VTop 2
SYMATTR InstName R1
SYMATTR Value {1/0.1253}
SYMBOL cap 400 288 R0
SYMATTR InstName C1
SYMATTR Value 1
SYMBOL ind 464 272 R0
SYMATTR InstName L1
SYMATTR Value 1
SYMBOL Misc/signal -16 304 R0
WINDOW 0 -179 99 Left 2
WINDOW 3 -181 68 Left 2
SYMATTR InstName V1
SYMATTR Value2 AC 1
SYMBOL Opamps/opamp 160 320 M180
WINDOW 0 -6 113 Left 2
SYMATTR InstName U1
SYMBOL res 80 336 R0
SYMATTR InstName R_B1
SYMATTR Value 4.20
SYMBOL res 224 304 R90
WINDOW 0 0 56 VBottom 2
WINDOW 3 32 56 VTop 2
SYMATTR InstName R_A1
SYMATTR Value 1
SYMBOL res 864 256 R90
WINDOW 0 0 56 VBottom 2
WINDOW 3 32 56 VTop 2
SYMATTR InstName R2
SYMATTR Value 14.48
SYMBOL res 720 320 R90
WINDOW 0 1 65 VBottom 2
WINDOW 3 32 56 VTop 2
SYMATTR InstName R_A2
SYMATTR Value 1
SYMBOL res 608 464 R180
WINDOW 0 36 76 Left 2
WINDOW 3 36 40 Left 2
SYMATTR InstName R_B2
SYMATTR Value 0.95
SYMBOL cap 896 304 R0
SYMATTR InstName C2
SYMATTR Value 1
SYMBOL ind 960 288 R0
SYMATTR InstName L2
SYMATTR Value 0.8156
SYMBOL Opamps/opamp 656 336 M180
WINDOW 0 -11 117 Left 2
SYMATTR InstName U2
SYMBOL res 1328 272 R90
WINDOW 0 0 56 VBottom 2
WINDOW 3 32 56 VTop 2
SYMATTR InstName R3
SYMATTR Value 17.77
SYMBOL ind 1424 304 R0
SYMATTR InstName L3
SYMATTR Value 1.226
SYMBOL Opamps/opamp 1136 352 M180
WINDOW 0 -4 101 Left 2
SYMATTR InstName U3
SYMBOL res 1056 368 R0
SYMATTR InstName RB_3
SYMATTR Value 0.26
SYMBOL res 1200 336 R90
WINDOW 0 0 56 VBottom 2
WINDOW 3 32 56 VTop 2
SYMATTR InstName RA_3
SYMATTR Value 1
SYMBOL cap 1360 320 R0
SYMATTR InstName C3
SYMATTR Value 1
TEXT -488 224 Left 2 !.lib opamp.sub\n.ac dec 10000 100m 200m
